Version 4
SHEET 1 880 680
WIRE 144 -64 -144 -64
WIRE 352 -64 144 -64
WIRE 528 -64 352 -64
WIRE 640 -64 528 -64
WIRE -144 -48 -144 -64
WIRE 320 -16 272 -16
WIRE 432 -16 384 -16
WIRE 144 0 144 -64
WIRE 272 64 272 -16
WIRE 320 64 272 64
WIRE 432 64 432 -16
WIRE 432 64 400 64
WIRE 352 128 352 -64
WIRE 528 128 528 -64
WIRE -144 144 -144 32
WIRE -144 144 -224 144
WIRE -112 144 -144 144
WIRE -16 144 -48 144
WIRE 272 144 272 64
WIRE 272 144 64 144
WIRE 320 144 272 144
WIRE 640 144 640 -64
WIRE 432 160 432 64
WIRE 432 160 384 160
WIRE 464 160 432 160
WIRE 144 176 144 80
WIRE 144 176 16 176
WIRE 320 176 144 176
WIRE -224 192 -224 144
WIRE 16 208 16 176
WIRE 144 208 144 176
WIRE 464 208 464 160
WIRE 16 304 16 272
WIRE 144 304 144 288
WIRE 144 304 16 304
WIRE -224 400 -224 272
WIRE 144 400 144 304
WIRE 144 400 -224 400
WIRE 272 400 144 400
WIRE 352 400 352 192
WIRE 352 400 272 400
WIRE 464 400 464 288
WIRE 464 400 352 400
WIRE 528 400 528 208
WIRE 528 400 464 400
WIRE 640 400 640 208
WIRE 640 400 528 400
WIRE 272 464 272 400
FLAG 272 464 0
SYMBOL Opamps\\LT1001 352 96 R0
WINDOW 3 -1 108 Left 2
SYMATTR InstName U1
SYMBOL voltage 528 112 R0
WINDOW 123 0 0 Left 2
WINDOW 39 0 0 Left 2
SYMATTR InstName V1
SYMATTR Value 5
SYMBOL voltage -224 176 R0
WINDOW 3 24 152 Left 2
WINDOW 123 24 124 Left 2
WINDOW 39 0 0 Left 2
SYMATTR InstName V2
SYMATTR Value SINE(0 .025 500)
SYMATTR Value2 AC 1
SYMBOL res -160 -64 R0
SYMATTR InstName R1
SYMATTR Value 2.2k
SYMBOL res 80 128 R90
WINDOW 0 0 56 VBottom 2
WINDOW 3 32 56 VTop 2
SYMATTR InstName R2
SYMATTR Value 10k
SYMBOL cap -48 128 R90
WINDOW 0 0 32 VBottom 2
WINDOW 3 33 35 VTop 2
SYMATTR InstName C1
SYMATTR Value 4.7µF
SYMBOL res 128 -16 R0
SYMATTR InstName R3
SYMATTR Value 10k
SYMBOL res 128 192 R0
SYMATTR InstName R4
SYMATTR Value 10k
SYMBOL cap 0 208 R0
SYMATTR InstName C2
SYMATTR Value 1µF
SYMBOL cap 624 144 R0
SYMATTR InstName C3
SYMATTR Value 0.1µF
SYMBOL res 416 48 R90
WINDOW 0 0 56 VBottom 2
WINDOW 3 32 56 VTop 2
SYMATTR InstName R5
SYMATTR Value 999k
SYMBOL cap 384 -32 R90
WINDOW 0 0 32 VBottom 2
WINDOW 3 32 32 VTop 2
SYMATTR InstName C4
SYMATTR Value 12pF
SYMBOL res 448 192 R0
SYMATTR InstName R6
SYMATTR Value 100k
TEXT -258 410 Left 2 !;ac oct 10 .01 1000000
TEXT -424 64 Left 2 !.tran 0 .01 0
